9

C         -6.98855        1.46984        0.00000
C         -5.86190        1.41320        0.00000
H         -7.34521        0.74072       -0.69719
H         -7.34522        2.43819       -0.28284
H         -7.34522        1.23062        0.98003
H         -5.56189        1.70907       -0.98003
H         -5.56188        0.50150        0.28284
O         -5.56188        2.19896        0.69719
H         -5.88522        3.07681        0.44078
