6
135972
N         -0.60290        0.52460        0.00000
C          0.87460        0.15160        0.00000
C         -0.27170       -0.67620        0.00000
H          1.38360        0.35500        0.92840
H          1.38350        0.35510       -0.92850
H         -0.48830       -1.74360        0.00000
