8

C         -8.28239        2.29085        0.00000
C         -7.21239        2.29085        0.00000
H         -8.63905        2.93791       -0.77395
H         -8.63906        2.63758        0.94735
H         -8.63906        1.29706       -0.17339
H         -6.85573        3.28464        0.17339
H         -6.85572        1.94412       -0.94735
H         -6.85572        1.64379        0.77395
